Results/PF_SnapMode/Switch_Close/CURRENTS_REPORT.Txt

SYMMETRICAL COMPONENT CURRENTS BY CIRCUIT ELEMENT (first 3 phases)

Element                      Term      I1         I2         %I2/I1    I0         %I0/I1   %Normal %Emergency

"VSOURCE.SOURCE" ...........   1  1.8103E-011   1.2997E-012     7.18  9.7013E-012    53.59      0.00     0.00
   -                           2  1.8103E-011   1.2997E-012     7.18  9.7013E-012    53.59      0.00     0.00
"VSOURCE.HV_SOURCE1" .......   1      7.2025   3.5029E-009     0.00  3.3666E-010     0.00      0.00     0.00
   -                           2      7.2025   3.5029E-009     0.00  3.3666E-010     0.00      0.00     0.00
"VSOURCE.HV_SOURCE2" .......   1      6.0958   2.9865E-009     0.00  2.9167E-010     0.00      0.00     0.00
   -                           2      6.0958   2.9865E-009     0.00  2.9167E-010     0.00      0.00     0.00
"TRANSFORMER.TRANSFORMER1" .   1      1.6774   8.2311E-010     0.00  1.3279E-014     0.00      5.81     4.26
   -                           2      46.129   2.4049E-008     0.00  1.507E-010     0.00      0.00     0.00
"TRANSFORMER.TRANSFORMER2" .   1      1.6758   8.2227E-010     0.00  2.1474E-014     0.00      5.81     4.26
   -                           2      46.084   2.4026E-008     0.00  1.5046E-010     0.00      0.00     0.00
"LINE.LV_LINE1" ............   1      46.129   2.4049E-008     0.00  1.5087E-010     0.00     11.53     7.69
   -                           2      46.129   2.4049E-008     0.00  1.5091E-010     0.00      0.00     0.00
"LINE.LV_LINE2" ............   1      46.084   2.4026E-008     0.00  1.5068E-010     0.00     11.52     7.68
   -                           2      46.085   2.4026E-008     0.00  1.5072E-010     0.00      0.00     0.00
"LINE.SWITCH_CONNECTION" ...   1      15.345   8.0033E-009     0.00  5.3244E-011     0.00      3.84     2.56
   -                           2      15.345   8.0032E-009     0.00  5.7364E-011     0.00      0.00     0.00
"LOAD.LOAD1" ...............   1      5.5251     2.7E-009     0.00  3.5941E-010     0.00      0.00     0.00
"LOAD.LOAD2" ...............   1        4.42    2.16E-009     0.00  2.8753E-010     0.00      0.00     0.00
"LOAD.LOAD3" ...............   1      61.474   3.2044E-008     0.00  2.0164E-010     0.00      0.00     0.00
"LOAD.LOAD4" ...............   1       30.74   1.6024E-008     0.00  1.0084E-010     0.00      0.00     0.00
